*simple pd model for transmission line simulations
.subckt pd p n 0
lpodl p n 80e-6
cpodl p n 15p
rpodl p n 10k
.ends pd
