Version 4
SHEET 1 4724 2148
WIRE 400 240 352 240
WIRE 576 240 480 240
WIRE 672 240 576 240
WIRE 832 240 688 240
WIRE 992 240 832 240
WIRE 1312 240 1152 240
WIRE 1488 240 1312 240
WIRE 1568 240 1504 240
WIRE 2000 240 1568 240
WIRE 2000 352 2000 240
WIRE 1072 384 1072 288
WIRE 352 528 352 240
WIRE 400 528 352 528
WIRE 576 528 480 528
WIRE 672 528 576 528
WIRE 800 528 688 528
WIRE 928 528 800 528
WIRE 1184 528 1088 528
WIRE 1312 528 1184 528
WIRE 1440 528 1328 528
WIRE 1744 528 1440 528
WIRE 2000 544 2000 432
WIRE 1008 672 1008 576
WIRE 1216 768 352 768
WIRE 1744 768 1744 528
WIRE 1744 768 1216 768
WIRE 1216 864 1216 768
WIRE 1280 864 1216 864
WIRE 1456 864 1360 864
WIRE 1552 864 1456 864
WIRE 1808 864 1568 864
WIRE 2016 864 1808 864
WIRE 2384 864 2176 864
WIRE 2688 864 2384 864
WIRE 2768 864 2704 864
WIRE 2912 864 2768 864
WIRE 2912 896 2912 864
WIRE 2096 1008 2096 912
WIRE 2912 1008 2912 976
WIRE 352 1040 352 768
WIRE 400 1040 352 1040
WIRE 576 1040 480 1040
WIRE 672 1040 576 1040
WIRE 800 1040 688 1040
WIRE 928 1040 800 1040
WIRE 1184 1040 1088 1040
WIRE 1312 1040 1184 1040
WIRE 1440 1040 1328 1040
WIRE 1744 1040 1440 1040
WIRE 1008 1184 1008 1088
WIRE 1216 1344 352 1344
WIRE 1744 1344 1744 1040
WIRE 1744 1344 1216 1344
WIRE 1216 1472 1216 1344
WIRE 1280 1472 1216 1472
WIRE 1456 1472 1360 1472
WIRE 1552 1472 1456 1472
WIRE 1808 1472 1568 1472
WIRE 2016 1472 1808 1472
WIRE 2384 1472 2176 1472
WIRE 2688 1472 2384 1472
WIRE 2768 1472 2704 1472
WIRE 2912 1472 2768 1472
WIRE 2912 1504 2912 1472
WIRE 2096 1616 2096 1520
WIRE 2912 1616 2912 1584
WIRE 352 1680 352 1344
WIRE 400 1680 352 1680
WIRE 576 1680 480 1680
WIRE 672 1680 576 1680
WIRE 800 1680 688 1680
WIRE 928 1680 800 1680
WIRE 1184 1680 1088 1680
WIRE 1312 1680 1184 1680
WIRE 1440 1680 1328 1680
WIRE 1744 1680 1440 1680
WIRE 1008 1824 1008 1728
WIRE 1744 1888 1744 1680
WIRE 1744 1888 352 1888
WIRE 352 1984 352 1888
WIRE 1280 1984 352 1984
WIRE 1456 1984 1360 1984
WIRE 1552 1984 1456 1984
WIRE 1808 1984 1568 1984
WIRE 2016 1984 1808 1984
WIRE 2384 1984 2176 1984
WIRE 2688 1984 2384 1984
WIRE 2768 1984 2704 1984
WIRE 2912 1984 2768 1984
WIRE 2912 2016 2912 1984
WIRE 2096 2128 2096 2032
WIRE 2912 2128 2912 2096
FLAG 2000 544 0
FLAG 1072 384 0
FLAG 576 240 Node1Stub[0]
FLAG 1568 240 Node1Stub[101]
FLAG 832 240 Node1Stub[0:100]
FLAG 1312 240 Node1Stub[1:101]
FLAG 2912 1008 0
FLAG 2096 1008 0
FLAG 1456 864 Node2Stub[0]
FLAG 2768 864 Node2Stub[101]
FLAG 1808 864 Node2Stub[0:100]
FLAG 2384 864 Node2Stub[1:101]
FLAG 2912 1616 0
FLAG 2096 1616 0
FLAG 1456 1472 Node3Stub[0]
FLAG 2768 1472 Node3Stub[101]
FLAG 1808 1472 Node3Stub[0:100]
FLAG 2384 1472 Node3Stub[1:101]
FLAG 2912 2128 0
FLAG 2096 2128 0
FLAG 1456 1984 Node4Stub[0]
FLAG 2768 1984 Node4Stub[101]
FLAG 1808 1984 Node4Stub[0:100]
FLAG 2384 1984 Node4Stub[1:101]
FLAG 1008 672 0
FLAG 576 528 Run1[0]
FLAG 1440 528 Run1[1001]
FLAG 800 528 Run1[0:1000]
FLAG 1184 528 Run1[1:1001]
FLAG 1008 1184 0
FLAG 576 1040 Run2[0]
FLAG 1440 1040 Run2[1001]
FLAG 800 1040 Run2[0:1000]
FLAG 1184 1040 Run2[1:1001]
FLAG 1008 1824 0
FLAG 576 1680 Run3[0]
FLAG 1440 1680 Run3[1001]
FLAG 800 1680 Run3[0:1000]
FLAG 1184 1680 Run3[1:1001]
BUSTAP 1488 240 1504 240
BUSTAP 672 240 688 240
BUSTAP 2688 864 2704 864
BUSTAP 1552 864 1568 864
BUSTAP 2688 1472 2704 1472
BUSTAP 1552 1472 1568 1472
BUSTAP 2688 1984 2704 1984
BUSTAP 1552 1984 1568 1984
BUSTAP 1312 528 1328 528
BUSTAP 672 528 688 528
BUSTAP 1312 1040 1328 1040
BUSTAP 672 1040 688 1040
BUSTAP 1312 1680 1328 1680
BUSTAP 672 1680 688 1680
SYMBOL voltage 2000 336 R0
WINDOW 3 24 152 Left 2
WINDOW 123 24 124 Left 2
WINDOW 39 24 180 Left 2
SYMATTR Value PULSE(0 0.5 .1u 10n 10n .05u .1u 6)
SYMATTR Value2 AC 1 0
SYMATTR SpiceLine Rser=100
SYMATTR InstName V1
SYMBOL GenericParameterizedModel 1072 240 R0
WINDOW 39 354 101 Bottom 2
SYMATTR SpiceLine Rcable={Rstub} Lcable={Lstub} Ccable={Cstub}
SYMATTR InstName NodeStubSeg1[0:100]
SYMBOL res 496 224 R90
WINDOW 0 0 56 VBottom 2
WINDOW 3 32 56 VTop 2
SYMATTR InstName R2
SYMATTR Value 1m
SYMBOL res 2896 880 R0
SYMATTR InstName R3
SYMATTR Value 100
SYMBOL GenericParameterizedModel 2096 864 R0
WINDOW 39 354 101 Bottom 2
SYMATTR SpiceLine Rcable={Rstub} Lcable={Lstub} Ccable={Cstub}
SYMATTR InstName NodeStubSeg2[0:100]
SYMBOL res 1376 848 R90
WINDOW 0 0 56 VBottom 2
WINDOW 3 32 56 VTop 2
SYMATTR InstName R4
SYMATTR Value 1m
SYMBOL res 2896 1488 R0
SYMATTR InstName R5
SYMATTR Value 100
SYMBOL GenericParameterizedModel 2096 1472 R0
WINDOW 39 354 101 Bottom 2
SYMATTR SpiceLine Rcable={Rstub} Lcable={Lstub} Ccable={Cstub}
SYMATTR InstName NodeStubSeg3[0:100]
SYMBOL res 1376 1456 R90
WINDOW 0 0 56 VBottom 2
WINDOW 3 32 56 VTop 2
SYMATTR InstName R6
SYMATTR Value 1m
SYMBOL res 2896 2000 R0
SYMATTR InstName R1
SYMATTR Value 100
SYMBOL GenericParameterizedModel 2096 1984 R0
WINDOW 39 354 101 Bottom 2
SYMATTR SpiceLine Rcable={Rstub} Lcable={Lstub} Ccable={Cstub}
SYMATTR InstName NodeStubSeg4[0:100]
SYMBOL res 1376 1968 R90
WINDOW 0 0 56 VBottom 2
WINDOW 3 32 56 VTop 2
SYMATTR InstName R8
SYMATTR Value 1m
SYMBOL GenericParameterizedModel 1008 528 R0
WINDOW 39 354 101 Bottom 2
SYMATTR SpiceLine Rcable={Rcable} Lcable={Lcable} Ccable={Ccable}
SYMATTR InstName Run1Seg[0:1000]
SYMBOL res 496 512 R90
WINDOW 0 0 56 VBottom 2
WINDOW 3 32 56 VTop 2
SYMATTR InstName R10
SYMATTR Value 1m
SYMBOL GenericParameterizedModel 1008 1040 R0
WINDOW 39 354 101 Bottom 2
SYMATTR SpiceLine Rcable={Rcable} Lcable={Lcable} Ccable={Ccable}
SYMATTR InstName Run2Seg[0:1000]
SYMBOL res 496 1024 R90
WINDOW 0 0 56 VBottom 2
WINDOW 3 32 56 VTop 2
SYMATTR InstName R9
SYMATTR Value 1m
SYMBOL GenericParameterizedModel 1008 1680 R0
WINDOW 39 354 101 Bottom 2
SYMATTR SpiceLine Rcable={Rcable} Lcable={Lcable} Ccable={Ccable}
SYMATTR InstName Run3Seg[0:1000]
SYMBOL res 496 1664 R90
WINDOW 0 0 56 VBottom 2
WINDOW 3 32 56 VTop 2
SYMATTR InstName R7
SYMATTR Value 1m
TEXT 312 72 Left 2 !;tran 3.1975e-6 startup
TEXT 312 48 Left 2 !.ac oct 100 1m 100Meg
TEXT 312 104 Left 2 !.net I(R1) V1  ; Rin & Rout determined from V1 and R1
TEXT 1136 104 Left 2 !;.param Rcable=2.268536e-6 Lcable=4.1287e-9 Ccable=0.450052e-12 ; Panduit 18 AWG 1 cm
TEXT 1136 72 Left 2 !.param Rcable=1.13427e-5 Lcable=20.6435e-9 Ccable=2.25026e-12 ; Panduit 18 AWG 5 cm
TEXT 1136 40 Left 2 !;.param Rcable=7.709662E-6 Lcable=6.139e-9 Ccable=0.50741e-12 ; Panduit 23 AWG 1 cm
TEXT 1136 8 Left 2 !;.param Rcable=3.85483e-5 Lcable=30.69876e-9 Ccable=2.53709e-12 ; Panduit 23 AWG 5 cm
TEXT 1144 -24 Left 2 ;Uncomment one parameter set at a time
TEXT 1120 352 Left 2 ;Line Length = Node Count * Segment Length
TEXT 2144 976 Left 2 ;Line Length = Node Count * Segment Length
TEXT 2144 1584 Left 2 ;Line Length = Node Count * Segment Length
TEXT 2144 2096 Left 2 ;Line Length = Node Count * Segment Length
TEXT 1056 640 Left 2 ;Line Length = Node Count * Segment Length
TEXT 1056 1152 Left 2 ;Line Length = Node Count * Segment Length
TEXT 1056 1792 Left 2 ;Line Length = Node Count * Segment Length
TEXT 2280 104 Left 2 !.param Rstub=2.268536e-6 Lstub=4.1287e-9 Cstub=0.450052e-12 ; Panduit 18 AWG 1 cm
TEXT 2280 72 Left 2 !;.param Rstub=1.13427e-5 Lstub=20.6435e-9 Cstub=2.25026e-12 ; Panduit 18 AWG 5 cm
TEXT 2280 40 Left 2 !;.param Rstub=7.709662E-6 Lstub=6.139e-9 Cstub=0.50741e-12 ; Panduit 23 AWG 1 cm
TEXT 2280 8 Left 2 !;.param Rstub=3.85483e-5 Lstub=30.69876e-9 Cstub=2.53709e-12 ; Panduit 23 AWG 5 cm
