*lumped transmission line model with 20 segments per meter at 51 meters
*and a 51.000000 meter long cable
.include tlump2.p
.include node.p
**********************
* name    trunk1
* length  2.6842105263157894
* gage    18
* seg_max 0.05
* nsegs   53.684211
* whole   53.000000
* part    0.684211
**********************
.subckt trunk1 0000p 0000n endp endn rtn
rendp endp 0054p 1u
rendn 0054n endn 1u
xseg0000 0000p 0000n 0001p 0001n rtn tlump params: lseg={2.06435e-08} rskin={1.13427e-05} cseg={2.25026e-12} rser={0.0094}
xseg0001 0001p 0001n 0002p 0002n rtn tlump params: lseg={2.06435e-08} rskin={1.13427e-05} cseg={2.25026e-12} rser={0.0094}
xseg0002 0002p 0002n 0003p 0003n rtn tlump params: lseg={2.06435e-08} rskin={1.13427e-05} cseg={2.25026e-12} rser={0.0094}
xseg0003 0003p 0003n 0004p 0004n rtn tlump params: lseg={2.06435e-08} rskin={1.13427e-05} cseg={2.25026e-12} rser={0.0094}
xseg0004 0004p 0004n 0005p 0005n rtn tlump params: lseg={2.06435e-08} rskin={1.13427e-05} cseg={2.25026e-12} rser={0.0094}
xseg0005 0005p 0005n 0006p 0006n rtn tlump params: lseg={2.06435e-08} rskin={1.13427e-05} cseg={2.25026e-12} rser={0.0094}
xseg0006 0006p 0006n 0007p 0007n rtn tlump params: lseg={2.06435e-08} rskin={1.13427e-05} cseg={2.25026e-12} rser={0.0094}
xseg0007 0007p 0007n 0008p 0008n rtn tlump params: lseg={2.06435e-08} rskin={1.13427e-05} cseg={2.25026e-12} rser={0.0094}
xseg0008 0008p 0008n 0009p 0009n rtn tlump params: lseg={2.06435e-08} rskin={1.13427e-05} cseg={2.25026e-12} rser={0.0094}
xseg0009 0009p 0009n 0010p 0010n rtn tlump params: lseg={2.06435e-08} rskin={1.13427e-05} cseg={2.25026e-12} rser={0.0094}
xseg0010 0010p 0010n 0011p 0011n rtn tlump params: lseg={2.06435e-08} rskin={1.13427e-05} cseg={2.25026e-12} rser={0.0094}
xseg0011 0011p 0011n 0012p 0012n rtn tlump params: lseg={2.06435e-08} rskin={1.13427e-05} cseg={2.25026e-12} rser={0.0094}
xseg0012 0012p 0012n 0013p 0013n rtn tlump params: lseg={2.06435e-08} rskin={1.13427e-05} cseg={2.25026e-12} rser={0.0094}
xseg0013 0013p 0013n 0014p 0014n rtn tlump params: lseg={2.06435e-08} rskin={1.13427e-05} cseg={2.25026e-12} rser={0.0094}
xseg0014 0014p 0014n 0015p 0015n rtn tlump params: lseg={2.06435e-08} rskin={1.13427e-05} cseg={2.25026e-12} rser={0.0094}
xseg0015 0015p 0015n 0016p 0016n rtn tlump params: lseg={2.06435e-08} rskin={1.13427e-05} cseg={2.25026e-12} rser={0.0094}
xseg0016 0016p 0016n 0017p 0017n rtn tlump params: lseg={2.06435e-08} rskin={1.13427e-05} cseg={2.25026e-12} rser={0.0094}
xseg0017 0017p 0017n 0018p 0018n rtn tlump params: lseg={2.06435e-08} rskin={1.13427e-05} cseg={2.25026e-12} rser={0.0094}
xseg0018 0018p 0018n 0019p 0019n rtn tlump params: lseg={2.06435e-08} rskin={1.13427e-05} cseg={2.25026e-12} rser={0.0094}
xseg0019 0019p 0019n 0020p 0020n rtn tlump params: lseg={2.06435e-08} rskin={1.13427e-05} cseg={2.25026e-12} rser={0.0094}
xseg0020 0020p 0020n 0021p 0021n rtn tlump params: lseg={2.06435e-08} rskin={1.13427e-05} cseg={2.25026e-12} rser={0.0094}
xseg0021 0021p 0021n 0022p 0022n rtn tlump params: lseg={2.06435e-08} rskin={1.13427e-05} cseg={2.25026e-12} rser={0.0094}
xseg0022 0022p 0022n 0023p 0023n rtn tlump params: lseg={2.06435e-08} rskin={1.13427e-05} cseg={2.25026e-12} rser={0.0094}
xseg0023 0023p 0023n 0024p 0024n rtn tlump params: lseg={2.06435e-08} rskin={1.13427e-05} cseg={2.25026e-12} rser={0.0094}
xseg0024 0024p 0024n 0025p 0025n rtn tlump params: lseg={2.06435e-08} rskin={1.13427e-05} cseg={2.25026e-12} rser={0.0094}
xseg0025 0025p 0025n 0026p 0026n rtn tlump params: lseg={2.06435e-08} rskin={1.13427e-05} cseg={2.25026e-12} rser={0.0094}
xseg0026 0026p 0026n 0027p 0027n rtn tlump params: lseg={2.06435e-08} rskin={1.13427e-05} cseg={2.25026e-12} rser={0.0094}
xseg0027 0027p 0027n 0028p 0028n rtn tlump params: lseg={2.06435e-08} rskin={1.13427e-05} cseg={2.25026e-12} rser={0.0094}
xseg0028 0028p 0028n 0029p 0029n rtn tlump params: lseg={2.06435e-08} rskin={1.13427e-05} cseg={2.25026e-12} rser={0.0094}
xseg0029 0029p 0029n 0030p 0030n rtn tlump params: lseg={2.06435e-08} rskin={1.13427e-05} cseg={2.25026e-12} rser={0.0094}
xseg0030 0030p 0030n 0031p 0031n rtn tlump params: lseg={2.06435e-08} rskin={1.13427e-05} cseg={2.25026e-12} rser={0.0094}
xseg0031 0031p 0031n 0032p 0032n rtn tlump params: lseg={2.06435e-08} rskin={1.13427e-05} cseg={2.25026e-12} rser={0.0094}
xseg0032 0032p 0032n 0033p 0033n rtn tlump params: lseg={2.06435e-08} rskin={1.13427e-05} cseg={2.25026e-12} rser={0.0094}
xseg0033 0033p 0033n 0034p 0034n rtn tlump params: lseg={2.06435e-08} rskin={1.13427e-05} cseg={2.25026e-12} rser={0.0094}
xseg0034 0034p 0034n 0035p 0035n rtn tlump params: lseg={2.06435e-08} rskin={1.13427e-05} cseg={2.25026e-12} rser={0.0094}
xseg0035 0035p 0035n 0036p 0036n rtn tlump params: lseg={2.06435e-08} rskin={1.13427e-05} cseg={2.25026e-12} rser={0.0094}
xseg0036 0036p 0036n 0037p 0037n rtn tlump params: lseg={2.06435e-08} rskin={1.13427e-05} cseg={2.25026e-12} rser={0.0094}
xseg0037 0037p 0037n 0038p 0038n rtn tlump params: lseg={2.06435e-08} rskin={1.13427e-05} cseg={2.25026e-12} rser={0.0094}
xseg0038 0038p 0038n 0039p 0039n rtn tlump params: lseg={2.06435e-08} rskin={1.13427e-05} cseg={2.25026e-12} rser={0.0094}
xseg0039 0039p 0039n 0040p 0040n rtn tlump params: lseg={2.06435e-08} rskin={1.13427e-05} cseg={2.25026e-12} rser={0.0094}
xseg0040 0040p 0040n 0041p 0041n rtn tlump params: lseg={2.06435e-08} rskin={1.13427e-05} cseg={2.25026e-12} rser={0.0094}
xseg0041 0041p 0041n 0042p 0042n rtn tlump params: lseg={2.06435e-08} rskin={1.13427e-05} cseg={2.25026e-12} rser={0.0094}
xseg0042 0042p 0042n 0043p 0043n rtn tlump params: lseg={2.06435e-08} rskin={1.13427e-05} cseg={2.25026e-12} rser={0.0094}
xseg0043 0043p 0043n 0044p 0044n rtn tlump params: lseg={2.06435e-08} rskin={1.13427e-05} cseg={2.25026e-12} rser={0.0094}
xseg0044 0044p 0044n 0045p 0045n rtn tlump params: lseg={2.06435e-08} rskin={1.13427e-05} cseg={2.25026e-12} rser={0.0094}
xseg0045 0045p 0045n 0046p 0046n rtn tlump params: lseg={2.06435e-08} rskin={1.13427e-05} cseg={2.25026e-12} rser={0.0094}
xseg0046 0046p 0046n 0047p 0047n rtn tlump params: lseg={2.06435e-08} rskin={1.13427e-05} cseg={2.25026e-12} rser={0.0094}
xseg0047 0047p 0047n 0048p 0048n rtn tlump params: lseg={2.06435e-08} rskin={1.13427e-05} cseg={2.25026e-12} rser={0.0094}
xseg0048 0048p 0048n 0049p 0049n rtn tlump params: lseg={2.06435e-08} rskin={1.13427e-05} cseg={2.25026e-12} rser={0.0094}
xseg0049 0049p 0049n 0050p 0050n rtn tlump params: lseg={2.06435e-08} rskin={1.13427e-05} cseg={2.25026e-12} rser={0.0094}
xseg0050 0050p 0050n 0051p 0051n rtn tlump params: lseg={2.06435e-08} rskin={1.13427e-05} cseg={2.25026e-12} rser={0.0094}
xseg0051 0051p 0051n 0052p 0052n rtn tlump params: lseg={2.06435e-08} rskin={1.13427e-05} cseg={2.25026e-12} rser={0.0094}
xseg0052 0052p 0052n 0053p 0053n rtn tlump params: lseg={2.06435e-08} rskin={1.13427e-05} cseg={2.25026e-12} rser={0.0094}
xseg0053 0053p 0053n 0054p 0054n rtn tlump params: lseg={1.41245e-08} rskin={7.76078e-06} cseg={1.53965e-12} rser={0.00643158}
.ends trunk1
**********************
* name    trunk2
* length  2.6842105263157894
* gage    18
* seg_max 0.05
* nsegs   53.684211
* whole   53.000000
* part    0.684211
**********************
.subckt trunk2 0000p 0000n endp endn rtn
rendp endp 0054p 1u
rendn 0054n endn 1u
xseg0000 0000p 0000n 0001p 0001n rtn tlump params: lseg={2.06435e-08} rskin={1.13427e-05} cseg={2.25026e-12} rser={0.0094}
xseg0001 0001p 0001n 0002p 0002n rtn tlump params: lseg={2.06435e-08} rskin={1.13427e-05} cseg={2.25026e-12} rser={0.0094}
xseg0002 0002p 0002n 0003p 0003n rtn tlump params: lseg={2.06435e-08} rskin={1.13427e-05} cseg={2.25026e-12} rser={0.0094}
xseg0003 0003p 0003n 0004p 0004n rtn tlump params: lseg={2.06435e-08} rskin={1.13427e-05} cseg={2.25026e-12} rser={0.0094}
xseg0004 0004p 0004n 0005p 0005n rtn tlump params: lseg={2.06435e-08} rskin={1.13427e-05} cseg={2.25026e-12} rser={0.0094}
xseg0005 0005p 0005n 0006p 0006n rtn tlump params: lseg={2.06435e-08} rskin={1.13427e-05} cseg={2.25026e-12} rser={0.0094}
xseg0006 0006p 0006n 0007p 0007n rtn tlump params: lseg={2.06435e-08} rskin={1.13427e-05} cseg={2.25026e-12} rser={0.0094}
xseg0007 0007p 0007n 0008p 0008n rtn tlump params: lseg={2.06435e-08} rskin={1.13427e-05} cseg={2.25026e-12} rser={0.0094}
xseg0008 0008p 0008n 0009p 0009n rtn tlump params: lseg={2.06435e-08} rskin={1.13427e-05} cseg={2.25026e-12} rser={0.0094}
xseg0009 0009p 0009n 0010p 0010n rtn tlump params: lseg={2.06435e-08} rskin={1.13427e-05} cseg={2.25026e-12} rser={0.0094}
xseg0010 0010p 0010n 0011p 0011n rtn tlump params: lseg={2.06435e-08} rskin={1.13427e-05} cseg={2.25026e-12} rser={0.0094}
xseg0011 0011p 0011n 0012p 0012n rtn tlump params: lseg={2.06435e-08} rskin={1.13427e-05} cseg={2.25026e-12} rser={0.0094}
xseg0012 0012p 0012n 0013p 0013n rtn tlump params: lseg={2.06435e-08} rskin={1.13427e-05} cseg={2.25026e-12} rser={0.0094}
xseg0013 0013p 0013n 0014p 0014n rtn tlump params: lseg={2.06435e-08} rskin={1.13427e-05} cseg={2.25026e-12} rser={0.0094}
xseg0014 0014p 0014n 0015p 0015n rtn tlump params: lseg={2.06435e-08} rskin={1.13427e-05} cseg={2.25026e-12} rser={0.0094}
xseg0015 0015p 0015n 0016p 0016n rtn tlump params: lseg={2.06435e-08} rskin={1.13427e-05} cseg={2.25026e-12} rser={0.0094}
xseg0016 0016p 0016n 0017p 0017n rtn tlump params: lseg={2.06435e-08} rskin={1.13427e-05} cseg={2.25026e-12} rser={0.0094}
xseg0017 0017p 0017n 0018p 0018n rtn tlump params: lseg={2.06435e-08} rskin={1.13427e-05} cseg={2.25026e-12} rser={0.0094}
xseg0018 0018p 0018n 0019p 0019n rtn tlump params: lseg={2.06435e-08} rskin={1.13427e-05} cseg={2.25026e-12} rser={0.0094}
xseg0019 0019p 0019n 0020p 0020n rtn tlump params: lseg={2.06435e-08} rskin={1.13427e-05} cseg={2.25026e-12} rser={0.0094}
xseg0020 0020p 0020n 0021p 0021n rtn tlump params: lseg={2.06435e-08} rskin={1.13427e-05} cseg={2.25026e-12} rser={0.0094}
xseg0021 0021p 0021n 0022p 0022n rtn tlump params: lseg={2.06435e-08} rskin={1.13427e-05} cseg={2.25026e-12} rser={0.0094}
xseg0022 0022p 0022n 0023p 0023n rtn tlump params: lseg={2.06435e-08} rskin={1.13427e-05} cseg={2.25026e-12} rser={0.0094}
xseg0023 0023p 0023n 0024p 0024n rtn tlump params: lseg={2.06435e-08} rskin={1.13427e-05} cseg={2.25026e-12} rser={0.0094}
xseg0024 0024p 0024n 0025p 0025n rtn tlump params: lseg={2.06435e-08} rskin={1.13427e-05} cseg={2.25026e-12} rser={0.0094}
xseg0025 0025p 0025n 0026p 0026n rtn tlump params: lseg={2.06435e-08} rskin={1.13427e-05} cseg={2.25026e-12} rser={0.0094}
xseg0026 0026p 0026n 0027p 0027n rtn tlump params: lseg={2.06435e-08} rskin={1.13427e-05} cseg={2.25026e-12} rser={0.0094}
xseg0027 0027p 0027n 0028p 0028n rtn tlump params: lseg={2.06435e-08} rskin={1.13427e-05} cseg={2.25026e-12} rser={0.0094}
xseg0028 0028p 0028n 0029p 0029n rtn tlump params: lseg={2.06435e-08} rskin={1.13427e-05} cseg={2.25026e-12} rser={0.0094}
xseg0029 0029p 0029n 0030p 0030n rtn tlump params: lseg={2.06435e-08} rskin={1.13427e-05} cseg={2.25026e-12} rser={0.0094}
xseg0030 0030p 0030n 0031p 0031n rtn tlump params: lseg={2.06435e-08} rskin={1.13427e-05} cseg={2.25026e-12} rser={0.0094}
xseg0031 0031p 0031n 0032p 0032n rtn tlump params: lseg={2.06435e-08} rskin={1.13427e-05} cseg={2.25026e-12} rser={0.0094}
xseg0032 0032p 0032n 0033p 0033n rtn tlump params: lseg={2.06435e-08} rskin={1.13427e-05} cseg={2.25026e-12} rser={0.0094}
xseg0033 0033p 0033n 0034p 0034n rtn tlump params: lseg={2.06435e-08} rskin={1.13427e-05} cseg={2.25026e-12} rser={0.0094}
xseg0034 0034p 0034n 0035p 0035n rtn tlump params: lseg={2.06435e-08} rskin={1.13427e-05} cseg={2.25026e-12} rser={0.0094}
xseg0035 0035p 0035n 0036p 0036n rtn tlump params: lseg={2.06435e-08} rskin={1.13427e-05} cseg={2.25026e-12} rser={0.0094}
xseg0036 0036p 0036n 0037p 0037n rtn tlump params: lseg={2.06435e-08} rskin={1.13427e-05} cseg={2.25026e-12} rser={0.0094}
xseg0037 0037p 0037n 0038p 0038n rtn tlump params: lseg={2.06435e-08} rskin={1.13427e-05} cseg={2.25026e-12} rser={0.0094}
xseg0038 0038p 0038n 0039p 0039n rtn tlump params: lseg={2.06435e-08} rskin={1.13427e-05} cseg={2.25026e-12} rser={0.0094}
xseg0039 0039p 0039n 0040p 0040n rtn tlump params: lseg={2.06435e-08} rskin={1.13427e-05} cseg={2.25026e-12} rser={0.0094}
xseg0040 0040p 0040n 0041p 0041n rtn tlump params: lseg={2.06435e-08} rskin={1.13427e-05} cseg={2.25026e-12} rser={0.0094}
xseg0041 0041p 0041n 0042p 0042n rtn tlump params: lseg={2.06435e-08} rskin={1.13427e-05} cseg={2.25026e-12} rser={0.0094}
xseg0042 0042p 0042n 0043p 0043n rtn tlump params: lseg={2.06435e-08} rskin={1.13427e-05} cseg={2.25026e-12} rser={0.0094}
xseg0043 0043p 0043n 0044p 0044n rtn tlump params: lseg={2.06435e-08} rskin={1.13427e-05} cseg={2.25026e-12} rser={0.0094}
xseg0044 0044p 0044n 0045p 0045n rtn tlump params: lseg={2.06435e-08} rskin={1.13427e-05} cseg={2.25026e-12} rser={0.0094}
xseg0045 0045p 0045n 0046p 0046n rtn tlump params: lseg={2.06435e-08} rskin={1.13427e-05} cseg={2.25026e-12} rser={0.0094}
xseg0046 0046p 0046n 0047p 0047n rtn tlump params: lseg={2.06435e-08} rskin={1.13427e-05} cseg={2.25026e-12} rser={0.0094}
xseg0047 0047p 0047n 0048p 0048n rtn tlump params: lseg={2.06435e-08} rskin={1.13427e-05} cseg={2.25026e-12} rser={0.0094}
xseg0048 0048p 0048n 0049p 0049n rtn tlump params: lseg={2.06435e-08} rskin={1.13427e-05} cseg={2.25026e-12} rser={0.0094}
xseg0049 0049p 0049n 0050p 0050n rtn tlump params: lseg={2.06435e-08} rskin={1.13427e-05} cseg={2.25026e-12} rser={0.0094}
xseg0050 0050p 0050n 0051p 0051n rtn tlump params: lseg={2.06435e-08} rskin={1.13427e-05} cseg={2.25026e-12} rser={0.0094}
xseg0051 0051p 0051n 0052p 0052n rtn tlump params: lseg={2.06435e-08} rskin={1.13427e-05} cseg={2.25026e-12} rser={0.0094}
xseg0052 0052p 0052n 0053p 0053n rtn tlump params: lseg={2.06435e-08} rskin={1.13427e-05} cseg={2.25026e-12} rser={0.0094}
xseg0053 0053p 0053n 0054p 0054n rtn tlump params: lseg={1.41245e-08} rskin={7.76078e-06} cseg={1.53965e-12} rser={0.00643158}
.ends trunk2
**********************
* name    trunk3
* length  2.6842105263157894
* gage    18
* seg_max 0.05
* nsegs   53.684211
* whole   53.000000
* part    0.684211
**********************
.subckt trunk3 0000p 0000n endp endn rtn
rendp endp 0054p 1u
rendn 0054n endn 1u
xseg0000 0000p 0000n 0001p 0001n rtn tlump params: lseg={2.06435e-08} rskin={1.13427e-05} cseg={2.25026e-12} rser={0.0094}
xseg0001 0001p 0001n 0002p 0002n rtn tlump params: lseg={2.06435e-08} rskin={1.13427e-05} cseg={2.25026e-12} rser={0.0094}
xseg0002 0002p 0002n 0003p 0003n rtn tlump params: lseg={2.06435e-08} rskin={1.13427e-05} cseg={2.25026e-12} rser={0.0094}
xseg0003 0003p 0003n 0004p 0004n rtn tlump params: lseg={2.06435e-08} rskin={1.13427e-05} cseg={2.25026e-12} rser={0.0094}
xseg0004 0004p 0004n 0005p 0005n rtn tlump params: lseg={2.06435e-08} rskin={1.13427e-05} cseg={2.25026e-12} rser={0.0094}
xseg0005 0005p 0005n 0006p 0006n rtn tlump params: lseg={2.06435e-08} rskin={1.13427e-05} cseg={2.25026e-12} rser={0.0094}
xseg0006 0006p 0006n 0007p 0007n rtn tlump params: lseg={2.06435e-08} rskin={1.13427e-05} cseg={2.25026e-12} rser={0.0094}
xseg0007 0007p 0007n 0008p 0008n rtn tlump params: lseg={2.06435e-08} rskin={1.13427e-05} cseg={2.25026e-12} rser={0.0094}
xseg0008 0008p 0008n 0009p 0009n rtn tlump params: lseg={2.06435e-08} rskin={1.13427e-05} cseg={2.25026e-12} rser={0.0094}
xseg0009 0009p 0009n 0010p 0010n rtn tlump params: lseg={2.06435e-08} rskin={1.13427e-05} cseg={2.25026e-12} rser={0.0094}
xseg0010 0010p 0010n 0011p 0011n rtn tlump params: lseg={2.06435e-08} rskin={1.13427e-05} cseg={2.25026e-12} rser={0.0094}
xseg0011 0011p 0011n 0012p 0012n rtn tlump params: lseg={2.06435e-08} rskin={1.13427e-05} cseg={2.25026e-12} rser={0.0094}
xseg0012 0012p 0012n 0013p 0013n rtn tlump params: lseg={2.06435e-08} rskin={1.13427e-05} cseg={2.25026e-12} rser={0.0094}
xseg0013 0013p 0013n 0014p 0014n rtn tlump params: lseg={2.06435e-08} rskin={1.13427e-05} cseg={2.25026e-12} rser={0.0094}
xseg0014 0014p 0014n 0015p 0015n rtn tlump params: lseg={2.06435e-08} rskin={1.13427e-05} cseg={2.25026e-12} rser={0.0094}
xseg0015 0015p 0015n 0016p 0016n rtn tlump params: lseg={2.06435e-08} rskin={1.13427e-05} cseg={2.25026e-12} rser={0.0094}
xseg0016 0016p 0016n 0017p 0017n rtn tlump params: lseg={2.06435e-08} rskin={1.13427e-05} cseg={2.25026e-12} rser={0.0094}
xseg0017 0017p 0017n 0018p 0018n rtn tlump params: lseg={2.06435e-08} rskin={1.13427e-05} cseg={2.25026e-12} rser={0.0094}
xseg0018 0018p 0018n 0019p 0019n rtn tlump params: lseg={2.06435e-08} rskin={1.13427e-05} cseg={2.25026e-12} rser={0.0094}
xseg0019 0019p 0019n 0020p 0020n rtn tlump params: lseg={2.06435e-08} rskin={1.13427e-05} cseg={2.25026e-12} rser={0.0094}
xseg0020 0020p 0020n 0021p 0021n rtn tlump params: lseg={2.06435e-08} rskin={1.13427e-05} cseg={2.25026e-12} rser={0.0094}
xseg0021 0021p 0021n 0022p 0022n rtn tlump params: lseg={2.06435e-08} rskin={1.13427e-05} cseg={2.25026e-12} rser={0.0094}
xseg0022 0022p 0022n 0023p 0023n rtn tlump params: lseg={2.06435e-08} rskin={1.13427e-05} cseg={2.25026e-12} rser={0.0094}
xseg0023 0023p 0023n 0024p 0024n rtn tlump params: lseg={2.06435e-08} rskin={1.13427e-05} cseg={2.25026e-12} rser={0.0094}
xseg0024 0024p 0024n 0025p 0025n rtn tlump params: lseg={2.06435e-08} rskin={1.13427e-05} cseg={2.25026e-12} rser={0.0094}
xseg0025 0025p 0025n 0026p 0026n rtn tlump params: lseg={2.06435e-08} rskin={1.13427e-05} cseg={2.25026e-12} rser={0.0094}
xseg0026 0026p 0026n 0027p 0027n rtn tlump params: lseg={2.06435e-08} rskin={1.13427e-05} cseg={2.25026e-12} rser={0.0094}
xseg0027 0027p 0027n 0028p 0028n rtn tlump params: lseg={2.06435e-08} rskin={1.13427e-05} cseg={2.25026e-12} rser={0.0094}
xseg0028 0028p 0028n 0029p 0029n rtn tlump params: lseg={2.06435e-08} rskin={1.13427e-05} cseg={2.25026e-12} rser={0.0094}
xseg0029 0029p 0029n 0030p 0030n rtn tlump params: lseg={2.06435e-08} rskin={1.13427e-05} cseg={2.25026e-12} rser={0.0094}
xseg0030 0030p 0030n 0031p 0031n rtn tlump params: lseg={2.06435e-08} rskin={1.13427e-05} cseg={2.25026e-12} rser={0.0094}
xseg0031 0031p 0031n 0032p 0032n rtn tlump params: lseg={2.06435e-08} rskin={1.13427e-05} cseg={2.25026e-12} rser={0.0094}
xseg0032 0032p 0032n 0033p 0033n rtn tlump params: lseg={2.06435e-08} rskin={1.13427e-05} cseg={2.25026e-12} rser={0.0094}
xseg0033 0033p 0033n 0034p 0034n rtn tlump params: lseg={2.06435e-08} rskin={1.13427e-05} cseg={2.25026e-12} rser={0.0094}
xseg0034 0034p 0034n 0035p 0035n rtn tlump params: lseg={2.06435e-08} rskin={1.13427e-05} cseg={2.25026e-12} rser={0.0094}
xseg0035 0035p 0035n 0036p 0036n rtn tlump params: lseg={2.06435e-08} rskin={1.13427e-05} cseg={2.25026e-12} rser={0.0094}
xseg0036 0036p 0036n 0037p 0037n rtn tlump params: lseg={2.06435e-08} rskin={1.13427e-05} cseg={2.25026e-12} rser={0.0094}
xseg0037 0037p 0037n 0038p 0038n rtn tlump params: lseg={2.06435e-08} rskin={1.13427e-05} cseg={2.25026e-12} rser={0.0094}
xseg0038 0038p 0038n 0039p 0039n rtn tlump params: lseg={2.06435e-08} rskin={1.13427e-05} cseg={2.25026e-12} rser={0.0094}
xseg0039 0039p 0039n 0040p 0040n rtn tlump params: lseg={2.06435e-08} rskin={1.13427e-05} cseg={2.25026e-12} rser={0.0094}
xseg0040 0040p 0040n 0041p 0041n rtn tlump params: lseg={2.06435e-08} rskin={1.13427e-05} cseg={2.25026e-12} rser={0.0094}
xseg0041 0041p 0041n 0042p 0042n rtn tlump params: lseg={2.06435e-08} rskin={1.13427e-05} cseg={2.25026e-12} rser={0.0094}
xseg0042 0042p 0042n 0043p 0043n rtn tlump params: lseg={2.06435e-08} rskin={1.13427e-05} cseg={2.25026e-12} rser={0.0094}
xseg0043 0043p 0043n 0044p 0044n rtn tlump params: lseg={2.06435e-08} rskin={1.13427e-05} cseg={2.25026e-12} rser={0.0094}
xseg0044 0044p 0044n 0045p 0045n rtn tlump params: lseg={2.06435e-08} rskin={1.13427e-05} cseg={2.25026e-12} rser={0.0094}
xseg0045 0045p 0045n 0046p 0046n rtn tlump params: lseg={2.06435e-08} rskin={1.13427e-05} cseg={2.25026e-12} rser={0.0094}
xseg0046 0046p 0046n 0047p 0047n rtn tlump params: lseg={2.06435e-08} rskin={1.13427e-05} cseg={2.25026e-12} rser={0.0094}
xseg0047 0047p 0047n 0048p 0048n rtn tlump params: lseg={2.06435e-08} rskin={1.13427e-05} cseg={2.25026e-12} rser={0.0094}
xseg0048 0048p 0048n 0049p 0049n rtn tlump params: lseg={2.06435e-08} rskin={1.13427e-05} cseg={2.25026e-12} rser={0.0094}
xseg0049 0049p 0049n 0050p 0050n rtn tlump params: lseg={2.06435e-08} rskin={1.13427e-05} cseg={2.25026e-12} rser={0.0094}
xseg0050 0050p 0050n 0051p 0051n rtn tlump params: lseg={2.06435e-08} rskin={1.13427e-05} cseg={2.25026e-12} rser={0.0094}
xseg0051 0051p 0051n 0052p 0052n rtn tlump params: lseg={2.06435e-08} rskin={1.13427e-05} cseg={2.25026e-12} rser={0.0094}
xseg0052 0052p 0052n 0053p 0053n rtn tlump params: lseg={2.06435e-08} rskin={1.13427e-05} cseg={2.25026e-12} rser={0.0094}
xseg0053 0053p 0053n 0054p 0054n rtn tlump params: lseg={1.41245e-08} rskin={7.76078e-06} cseg={1.53965e-12} rser={0.00643158}
.ends trunk3
**********************
* name    trunk4
* length  2.6842105263157894
* gage    18
* seg_max 0.05
* nsegs   53.684211
* whole   53.000000
* part    0.684211
**********************
.subckt trunk4 0000p 0000n endp endn rtn
rendp endp 0054p 1u
rendn 0054n endn 1u
xseg0000 0000p 0000n 0001p 0001n rtn tlump params: lseg={2.06435e-08} rskin={1.13427e-05} cseg={2.25026e-12} rser={0.0094}
xseg0001 0001p 0001n 0002p 0002n rtn tlump params: lseg={2.06435e-08} rskin={1.13427e-05} cseg={2.25026e-12} rser={0.0094}
xseg0002 0002p 0002n 0003p 0003n rtn tlump params: lseg={2.06435e-08} rskin={1.13427e-05} cseg={2.25026e-12} rser={0.0094}
xseg0003 0003p 0003n 0004p 0004n rtn tlump params: lseg={2.06435e-08} rskin={1.13427e-05} cseg={2.25026e-12} rser={0.0094}
xseg0004 0004p 0004n 0005p 0005n rtn tlump params: lseg={2.06435e-08} rskin={1.13427e-05} cseg={2.25026e-12} rser={0.0094}
xseg0005 0005p 0005n 0006p 0006n rtn tlump params: lseg={2.06435e-08} rskin={1.13427e-05} cseg={2.25026e-12} rser={0.0094}
xseg0006 0006p 0006n 0007p 0007n rtn tlump params: lseg={2.06435e-08} rskin={1.13427e-05} cseg={2.25026e-12} rser={0.0094}
xseg0007 0007p 0007n 0008p 0008n rtn tlump params: lseg={2.06435e-08} rskin={1.13427e-05} cseg={2.25026e-12} rser={0.0094}
xseg0008 0008p 0008n 0009p 0009n rtn tlump params: lseg={2.06435e-08} rskin={1.13427e-05} cseg={2.25026e-12} rser={0.0094}
xseg0009 0009p 0009n 0010p 0010n rtn tlump params: lseg={2.06435e-08} rskin={1.13427e-05} cseg={2.25026e-12} rser={0.0094}
xseg0010 0010p 0010n 0011p 0011n rtn tlump params: lseg={2.06435e-08} rskin={1.13427e-05} cseg={2.25026e-12} rser={0.0094}
xseg0011 0011p 0011n 0012p 0012n rtn tlump params: lseg={2.06435e-08} rskin={1.13427e-05} cseg={2.25026e-12} rser={0.0094}
xseg0012 0012p 0012n 0013p 0013n rtn tlump params: lseg={2.06435e-08} rskin={1.13427e-05} cseg={2.25026e-12} rser={0.0094}
xseg0013 0013p 0013n 0014p 0014n rtn tlump params: lseg={2.06435e-08} rskin={1.13427e-05} cseg={2.25026e-12} rser={0.0094}
xseg0014 0014p 0014n 0015p 0015n rtn tlump params: lseg={2.06435e-08} rskin={1.13427e-05} cseg={2.25026e-12} rser={0.0094}
xseg0015 0015p 0015n 0016p 0016n rtn tlump params: lseg={2.06435e-08} rskin={1.13427e-05} cseg={2.25026e-12} rser={0.0094}
xseg0016 0016p 0016n 0017p 0017n rtn tlump params: lseg={2.06435e-08} rskin={1.13427e-05} cseg={2.25026e-12} rser={0.0094}
xseg0017 0017p 0017n 0018p 0018n rtn tlump params: lseg={2.06435e-08} rskin={1.13427e-05} cseg={2.25026e-12} rser={0.0094}
xseg0018 0018p 0018n 0019p 0019n rtn tlump params: lseg={2.06435e-08} rskin={1.13427e-05} cseg={2.25026e-12} rser={0.0094}
xseg0019 0019p 0019n 0020p 0020n rtn tlump params: lseg={2.06435e-08} rskin={1.13427e-05} cseg={2.25026e-12} rser={0.0094}
xseg0020 0020p 0020n 0021p 0021n rtn tlump params: lseg={2.06435e-08} rskin={1.13427e-05} cseg={2.25026e-12} rser={0.0094}
xseg0021 0021p 0021n 0022p 0022n rtn tlump params: lseg={2.06435e-08} rskin={1.13427e-05} cseg={2.25026e-12} rser={0.0094}
xseg0022 0022p 0022n 0023p 0023n rtn tlump params: lseg={2.06435e-08} rskin={1.13427e-05} cseg={2.25026e-12} rser={0.0094}
xseg0023 0023p 0023n 0024p 0024n rtn tlump params: lseg={2.06435e-08} rskin={1.13427e-05} cseg={2.25026e-12} rser={0.0094}
xseg0024 0024p 0024n 0025p 0025n rtn tlump params: lseg={2.06435e-08} rskin={1.13427e-05} cseg={2.25026e-12} rser={0.0094}
xseg0025 0025p 0025n 0026p 0026n rtn tlump params: lseg={2.06435e-08} rskin={1.13427e-05} cseg={2.25026e-12} rser={0.0094}
xseg0026 0026p 0026n 0027p 0027n rtn tlump params: lseg={2.06435e-08} rskin={1.13427e-05} cseg={2.25026e-12} rser={0.0094}
xseg0027 0027p 0027n 0028p 0028n rtn tlump params: lseg={2.06435e-08} rskin={1.13427e-05} cseg={2.25026e-12} rser={0.0094}
xseg0028 0028p 0028n 0029p 0029n rtn tlump params: lseg={2.06435e-08} rskin={1.13427e-05} cseg={2.25026e-12} rser={0.0094}
xseg0029 0029p 0029n 0030p 0030n rtn tlump params: lseg={2.06435e-08} rskin={1.13427e-05} cseg={2.25026e-12} rser={0.0094}
xseg0030 0030p 0030n 0031p 0031n rtn tlump params: lseg={2.06435e-08} rskin={1.13427e-05} cseg={2.25026e-12} rser={0.0094}
xseg0031 0031p 0031n 0032p 0032n rtn tlump params: lseg={2.06435e-08} rskin={1.13427e-05} cseg={2.25026e-12} rser={0.0094}
xseg0032 0032p 0032n 0033p 0033n rtn tlump params: lseg={2.06435e-08} rskin={1.13427e-05} cseg={2.25026e-12} rser={0.0094}
xseg0033 0033p 0033n 0034p 0034n rtn tlump params: lseg={2.06435e-08} rskin={1.13427e-05} cseg={2.25026e-12} rser={0.0094}
xseg0034 0034p 0034n 0035p 0035n rtn tlump params: lseg={2.06435e-08} rskin={1.13427e-05} cseg={2.25026e-12} rser={0.0094}
xseg0035 0035p 0035n 0036p 0036n rtn tlump params: lseg={2.06435e-08} rskin={1.13427e-05} cseg={2.25026e-12} rser={0.0094}
xseg0036 0036p 0036n 0037p 0037n rtn tlump params: lseg={2.06435e-08} rskin={1.13427e-05} cseg={2.25026e-12} rser={0.0094}
xseg0037 0037p 0037n 0038p 0038n rtn tlump params: lseg={2.06435e-08} rskin={1.13427e-05} cseg={2.25026e-12} rser={0.0094}
xseg0038 0038p 0038n 0039p 0039n rtn tlump params: lseg={2.06435e-08} rskin={1.13427e-05} cseg={2.25026e-12} rser={0.0094}
xseg0039 0039p 0039n 0040p 0040n rtn tlump params: lseg={2.06435e-08} rskin={1.13427e-05} cseg={2.25026e-12} rser={0.0094}
xseg0040 0040p 0040n 0041p 0041n rtn tlump params: lseg={2.06435e-08} rskin={1.13427e-05} cseg={2.25026e-12} rser={0.0094}
xseg0041 0041p 0041n 0042p 0042n rtn tlump params: lseg={2.06435e-08} rskin={1.13427e-05} cseg={2.25026e-12} rser={0.0094}
xseg0042 0042p 0042n 0043p 0043n rtn tlump params: lseg={2.06435e-08} rskin={1.13427e-05} cseg={2.25026e-12} rser={0.0094}
xseg0043 0043p 0043n 0044p 0044n rtn tlump params: lseg={2.06435e-08} rskin={1.13427e-05} cseg={2.25026e-12} rser={0.0094}
xseg0044 0044p 0044n 0045p 0045n rtn tlump params: lseg={2.06435e-08} rskin={1.13427e-05} cseg={2.25026e-12} rser={0.0094}
xseg0045 0045p 0045n 0046p 0046n rtn tlump params: lseg={2.06435e-08} rskin={1.13427e-05} cseg={2.25026e-12} rser={0.0094}
xseg0046 0046p 0046n 0047p 0047n rtn tlump params: lseg={2.06435e-08} rskin={1.13427e-05} cseg={2.25026e-12} rser={0.0094}
xseg0047 0047p 0047n 0048p 0048n rtn tlump params: lseg={2.06435e-08} rskin={1.13427e-05} cseg={2.25026e-12} rser={0.0094}
xseg0048 0048p 0048n 0049p 0049n rtn tlump params: lseg={2.06435e-08} rskin={1.13427e-05} cseg={2.25026e-12} rser={0.0094}
xseg0049 0049p 0049n 0050p 0050n rtn tlump params: lseg={2.06435e-08} rskin={1.13427e-05} cseg={2.25026e-12} rser={0.0094}
xseg0050 0050p 0050n 0051p 0051n rtn tlump params: lseg={2.06435e-08} rskin={1.13427e-05} cseg={2.25026e-12} rser={0.0094}
xseg0051 0051p 0051n 0052p 0052n rtn tlump params: lseg={2.06435e-08} rskin={1.13427e-05} cseg={2.25026e-12} rser={0.0094}
xseg0052 0052p 0052n 0053p 0053n rtn tlump params: lseg={2.06435e-08} rskin={1.13427e-05} cseg={2.25026e-12} rser={0.0094}
xseg0053 0053p 0053n 0054p 0054n rtn tlump params: lseg={1.41245e-08} rskin={7.76078e-06} cseg={1.53965e-12} rser={0.00643158}
.ends trunk4
**********************
* name    trunk5
* length  2.6842105263157894
* gage    18
* seg_max 0.05
* nsegs   53.684211
* whole   53.000000
* part    0.684211
**********************
.subckt trunk5 0000p 0000n endp endn rtn
rendp endp 0054p 1u
rendn 0054n endn 1u
xseg0000 0000p 0000n 0001p 0001n rtn tlump params: lseg={2.06435e-08} rskin={1.13427e-05} cseg={2.25026e-12} rser={0.0094}
xseg0001 0001p 0001n 0002p 0002n rtn tlump params: lseg={2.06435e-08} rskin={1.13427e-05} cseg={2.25026e-12} rser={0.0094}
xseg0002 0002p 0002n 0003p 0003n rtn tlump params: lseg={2.06435e-08} rskin={1.13427e-05} cseg={2.25026e-12} rser={0.0094}
xseg0003 0003p 0003n 0004p 0004n rtn tlump params: lseg={2.06435e-08} rskin={1.13427e-05} cseg={2.25026e-12} rser={0.0094}
xseg0004 0004p 0004n 0005p 0005n rtn tlump params: lseg={2.06435e-08} rskin={1.13427e-05} cseg={2.25026e-12} rser={0.0094}
xseg0005 0005p 0005n 0006p 0006n rtn tlump params: lseg={2.06435e-08} rskin={1.13427e-05} cseg={2.25026e-12} rser={0.0094}
xseg0006 0006p 0006n 0007p 0007n rtn tlump params: lseg={2.06435e-08} rskin={1.13427e-05} cseg={2.25026e-12} rser={0.0094}
xseg0007 0007p 0007n 0008p 0008n rtn tlump params: lseg={2.06435e-08} rskin={1.13427e-05} cseg={2.25026e-12} rser={0.0094}
xseg0008 0008p 0008n 0009p 0009n rtn tlump params: lseg={2.06435e-08} rskin={1.13427e-05} cseg={2.25026e-12} rser={0.0094}
xseg0009 0009p 0009n 0010p 0010n rtn tlump params: lseg={2.06435e-08} rskin={1.13427e-05} cseg={2.25026e-12} rser={0.0094}
xseg0010 0010p 0010n 0011p 0011n rtn tlump params: lseg={2.06435e-08} rskin={1.13427e-05} cseg={2.25026e-12} rser={0.0094}
xseg0011 0011p 0011n 0012p 0012n rtn tlump params: lseg={2.06435e-08} rskin={1.13427e-05} cseg={2.25026e-12} rser={0.0094}
xseg0012 0012p 0012n 0013p 0013n rtn tlump params: lseg={2.06435e-08} rskin={1.13427e-05} cseg={2.25026e-12} rser={0.0094}
xseg0013 0013p 0013n 0014p 0014n rtn tlump params: lseg={2.06435e-08} rskin={1.13427e-05} cseg={2.25026e-12} rser={0.0094}
xseg0014 0014p 0014n 0015p 0015n rtn tlump params: lseg={2.06435e-08} rskin={1.13427e-05} cseg={2.25026e-12} rser={0.0094}